*Heading
** Job name: Prob3Q8 Model name: Model-1
** Generated by: Abaqus/CAE Student Edition 2020
*Preprint, echo=NO, model=NO, history=NO, contact=NO
**
** PARTS
**
*Part, name=Part-1
*Node
      1, -0.176776692,  0.176776692
      2,        -0.25,           0.
      3, -0.176776692, -0.176776692
      4,           0.,        -0.25
      5,  0.176776692, -0.176776692
      6,         0.25,           0.
      7,  0.176776692,  0.176776692
      8,           0.,         0.25
      9,         -0.5,         -0.5
     10,         -0.5,          0.5
     11,          0.5,         -0.5
     12,          0.5,          0.5
     13,         -0.5,        -0.25
     14,         -0.5,           0.
     15,         -0.5,         0.25
     16,         0.25,         -0.5
     17,           0.,         -0.5
     18,        -0.25,         -0.5
     19,          0.5,         0.25
     20,          0.5,           0.
** ... 84 like lines cut
*Element, type=DC2D6
 1,  31,  24,  23,  33,  34,  35
 2,  31,  25,  24,  36,  37,  33
 3,  25,  19,  24,  38,  39,  37
 4,  28,  21,  20,  40,  41,  42
 5,  28,  26,  21,  43,  44,  40
 6,  26,  16,  21,  45,  46,  44
 7,  32,   4,   3,  47,  48,  49
 8,  32,  29,  13,  50,  51,  52
 9,  32,  13,   9,  52,  53,  54
10,  27,  15,  14,  55,  56,  57
11,  27,  22,  15,  58,  59,  55
12,  30,  22,  27,  60,  58,  61
13,  32,   9,  18,  54,  62,  63
14,  29,  14,  13,  64,  65,  51
15,  27,  14,   2,  57,  66,  67
16,  21,  16,  11,  46,  68,  69
17,  26,  17,  16,  70,  71,  45
18,  32,  17,   4,  72,  73,  47
19,  24,  19,  12,  39,  74,  75
20,  25,  20,  19,  76,  77,  38
** ... 20 like lines cut
*Nset, nset=_PickedSet2, internal, generate
   1,  104,    1
*Elset, elset=_PickedSet2, internal, generate
  1,  40,   1
*Nset, nset=ring
   1,   2,   3,   4,   5,   6,   7,   8,  48,  87,  90,  92,  95,  98, 100, 102
*Elset, elset=ring
  7, 25, 27, 29, 31, 33, 35, 37
*Nset, nset=bot1
   9,  11,  16,  17,  18,  62,  68,  71, 104
*Elset, elset=bot1
 13, 16, 17, 39
*Nset, nset=right2
 11, 12, 19, 20, 21, 41, 69, 74, 77
*Elset, elset=right2
  4, 16, 19, 20
*Nset, nset=top3
 10, 12, 22, 23, 24, 34, 75, 80, 83
*Elset, elset=top3
  1, 19, 22, 23
*Nset, nset=left4
  9, 10, 13, 14, 15, 53, 56, 65, 81
*Elset, elset=left4
  9, 10, 14, 22
** Section: Section-1
*Solid Section, elset=_PickedSet2, material=Material-1
,
*End Part
**  
**
** ASSEMBLY
**
*Assembly, name=Assembly
**  
*Instance, name=Part-1-1, part=Part-1
*End Instance
**  
*Nset, nset=_PickedSet4, internal, instance=Part-1-1
   1,   2,   3,   4,   5,   6,   7,   8,  48,  87,  90,  92,  95,  98, 100, 102
*Elset, elset=_PickedSet4, internal, instance=Part-1-1
  7, 25, 27, 29, 31, 33, 35, 37
*Nset, nset=_PickedSet5, internal, instance=Part-1-1
  9, 10, 11, 12, 13, 14, 15, 19, 20, 21, 41, 53, 56, 65, 69, 74
 77, 81
*Elset, elset=_PickedSet5, internal, instance=Part-1-1
  4,  9, 10, 14, 16, 19, 20, 22
*Nset, nset=_PickedSet8, internal, instance=Part-1-1, generate
   1,  104,    1
*Elset, elset=_PickedSet8, internal, instance=Part-1-1, generate
  1,  40,   1
*Elset, elset=__PickedSurf6_S2, internal, instance=Part-1-1
  1, 23
*Elset, elset=__PickedSurf6_S3, internal, instance=Part-1-1
 19,
*Elset, elset=__PickedSurf6_S1, internal, instance=Part-1-1
 22,
*Surface, type=ELEMENT, name=_PickedSurf6, internal
__PickedSurf6_S2, S2
__PickedSurf6_S3, S3
__PickedSurf6_S1, S1
*Elset, elset=__PickedSurf7_S2, internal, instance=Part-1-1
 13, 16, 17, 39
*Surface, type=ELEMENT, name=_PickedSurf7, internal
__PickedSurf7_S2, S2
*End Assembly
** 
** MATERIALS
** 
*Material, name=Material-1
*Conductivity
1.,
** ----------------------------------------------------------------
** 
** STEP: Step-1
** 
*Step, name=Step-1, nlgeom=NO
*Heat Transfer, steady state, deltmx=0.
1., 1., 1e-05, 1., 
** 
** BOUNDARY CONDITIONS
** 
** Name: leftandright Type: Temperature Using Analytical Field: leftandright
*Boundary
Part-1-1.9, 11, 11, 0.208947
Part-1-1.10, 11, 11, 0.208947
Part-1-1.11, 11, 11, 0.208947
Part-1-1.12, 11, 11, 0.208947
Part-1-1.13, 11, 11, 0.0954915
Part-1-1.14, 11, 11, 0.0625
Part-1-1.15, 11, 11, 0.0954915
Part-1-1.19, 11, 11, 0.0954915
Part-1-1.20, 11, 11, 0.0625
Part-1-1.21, 11, 11, 0.0954915
Part-1-1.41, 11, 11, 0.0704309
Part-1-1.53, 11, 11, 0.140625
Part-1-1.56, 11, 11, 0.0704309
Part-1-1.65, 11, 11, 0.0704309
Part-1-1.69, 11, 11, 0.140625
Part-1-1.74, 11, 11, 0.140625
Part-1-1.77, 11, 11, 0.0704309
Part-1-1.81, 11, 11, 0.140625
** Name: ring Type: Temperature
*Boundary
_PickedSet4, 11, 11
** 
** LOADS
** 
** Name: body   Type: Body heat flux Using Field: bodySource
*Dflux
Part-1-1.1, BF, -2.91701
Part-1-1.2, BF, -2.80061
Part-1-1.3, BF, -2.94738
Part-1-1.4, BF, -2.91701
Part-1-1.5, BF, -2.80061
Part-1-1.6, BF, -2.94738
Part-1-1.7, BF, -2.29825
Part-1-1.8, BF, -2.85695
Part-1-1.9, BF, -3.09367
Part-1-1.10, BF, -2.91489
Part-1-1.11, BF, -2.94738
Part-1-1.12, BF, -2.80061
Part-1-1.13, BF, -3.10028
Part-1-1.14, BF, -2.92464
Part-1-1.15, BF, -2.60389
Part-1-1.16, BF, -3.15147
Part-1-1.17, BF, -2.91489
Part-1-1.18, BF, -2.65051
Part-1-1.19, BF, -3.15147
Part-1-1.20, BF, -2.91489
** ... 20 like lines cut
** Name: bot   Type: Surface heat flux Using Field: topbot
*Dflux
Part-1-1.13, S2, -0.6
Part-1-1.16, S2, -0.6
Part-1-1.17, S2, -0.514929
Part-1-1.39, S2, -0.514929
** Name: top   Type: Surface heat flux Using Field: topbot
*Dflux
Part-1-1.1, S2, 0.514929
Part-1-1.19, S3, 0.6
Part-1-1.22, S1, 0.6
Part-1-1.23, S2, 0.514929
** 
** OUTPUT REQUESTS
** 
*Restart, write, frequency=0
** 
** FIELD OUTPUT: F-Output-1
** 
*Output, field, variable=PRESELECT
*Output, history, frequency=0
*End Step
