*Heading
** Job name: Prob3Q8 Model name: Model-1
** Generated by: Abaqus/CAE Student Edition 2020
*Preprint, echo=NO, model=NO, history=NO, contact=NO
**
** PARTS
**
*Part, name=Part-1
*Node
      1, -0.0956708565,  0.230969876
      2, -0.176776692,  0.176776692
      3, -0.230969876, 0.0956708565
      4,        -0.25,           0.
      5, -0.230969876, -0.0956708565
      6, -0.176776692, -0.176776692
      7, -0.0956708565, -0.230969876
      8,           0.,        -0.25
      9, 0.0956708565, -0.230969876
     10,  0.176776692, -0.176776692
     11,  0.230969876, -0.0956708565
     12,         0.25,           0.
     13,  0.230969876, 0.0956708565
     14,  0.176776692,  0.176776692
     15, 0.0956708565,  0.230969876
     16,           0.,         0.25
     17,         -0.5,         -0.5
     18,         -0.5,          0.5
     19,          0.5,         -0.5
     20,          0.5,          0.5
** ... 388 like lines cut
*Element, type=DC2D6
  1, 102,  98,  71, 117, 118, 119
  2,  99,  54,  98, 120, 121, 122
  3,  88,  64,  66, 123, 124, 125
  4, 103,  88,  87, 126, 127, 128
  5,  69,  12,  11, 129, 130, 131
  6, 104,  91,  65, 132, 133, 134
  7, 114,  92, 104, 135, 136, 137
  8,  81,  70,  68, 138, 139, 140
  9,  81,  33,  32, 141, 142, 143
 10,  84,  67,  58, 144, 145, 146
 11, 105,  84,  58, 147, 146, 148
 12, 115,  85, 105, 149, 150, 151
 13,  74,  61,  60, 152, 153, 154
 14,  74,  24,  23, 155, 156, 157
 15,  77,  76,  59, 158, 159, 160
 16, 106,  77,  62, 161, 162, 163
 17, 107,  78, 106, 164, 165, 166
 18,  95,  63,  57, 167, 168, 169
 19,  95,  51,  50, 170, 171, 172
 20,  98,  72,  71, 173, 174, 118
** ... 156 like lines cut
*Nset, nset=_PickedSet2, internal, generate
   1,  408,    1
*Elset, elset=_PickedSet2, internal, generate
   1,  176,    1
*Nset, nset=ring
   1,   2,   3,   4,   5,   6,   7,   8,   9,  10,  11,  12,  13,  14,  15,  16
 130, 266, 270, 275, 280, 282, 284, 288, 291, 295, 299, 302, 305, 308, 311, 314
*Elset, elset=ring
  5, 57, 59, 61, 63, 65, 67, 69, 71, 73, 75, 77, 79, 83, 85, 87
*Nset, nset=bot1
  17,  19,  30,  31,  32,  33,  34,  35,  36,  37,  38, 142, 177, 198, 331, 336
 339, 341, 346, 347, 406
*Elset, elset=bot1
   9,  21,  30, 103, 107, 109, 111, 114, 115, 168
*Nset, nset=right2
  19,  20,  39,  40,  41,  42,  43,  44,  45,  46,  47, 199, 220, 350, 355, 357
 360, 362, 367, 368, 408
*Elset, elset=right2
  30,  39, 117, 120, 121, 123, 125, 128, 129, 170
*Nset, nset=top3
  18,  20,  48,  49,  50,  51,  52,  53,  54,  55,  56, 171, 221, 242, 372, 377
 380, 382, 387, 388, 391
*Elset, elset=top3
  19,  39,  48, 131, 135, 137, 139, 142, 143, 145
*Nset, nset=left4
  17,  18,  21,  22,  23,  24,  25,  26,  27,  28,  29, 156, 176, 243, 317, 322
 324, 326, 327, 329, 404
*Elset, elset=left4
  14,  21,  48,  89,  93,  95,  97, 100, 102, 166
** Section: Section-1
*Solid Section, elset=_PickedSet2, material=Material-1
,
*End Part
**  
**
** ASSEMBLY
**
*Assembly, name=Assembly
**  
*Instance, name=Part-1-1, part=Part-1
*End Instance
**  
*Nset, nset=_PickedSet4, internal, instance=Part-1-1
   1,   2,   3,   4,   5,   6,   7,   8,   9,  10,  11,  12,  13,  14,  15,  16
 130, 266, 270, 275, 280, 282, 284, 288, 291, 295, 299, 302, 305, 308, 311, 314
*Elset, elset=_PickedSet4, internal, instance=Part-1-1
  5, 57, 59, 61, 63, 65, 67, 69, 71, 73, 75, 77, 79, 83, 85, 87
*Nset, nset=_PickedSet5, internal, instance=Part-1-1
  17,  18,  19,  20,  21,  22,  23,  24,  25,  26,  27,  28,  29,  39,  40,  41
  42,  43,  44,  45,  46,  47, 156, 176, 199, 220, 243, 317, 322, 324, 326, 327
 329, 350, 355, 357, 360, 362, 367, 368, 404, 408
*Elset, elset=_PickedSet5, internal, instance=Part-1-1
  14,  21,  30,  39,  48,  89,  93,  95,  97, 100, 102, 117, 120, 121, 123, 125
 128, 129, 166, 170
*Nset, nset=_PickedSet8, internal, instance=Part-1-1, generate
   1,  408,    1
*Elset, elset=_PickedSet8, internal, instance=Part-1-1, generate
   1,  176,    1
*Elset, elset=__PickedSurf6_S2, internal, instance=Part-1-1
  19, 131, 135, 137, 139, 142, 143, 145
*Elset, elset=__PickedSurf6_S3, internal, instance=Part-1-1
 39,
*Elset, elset=__PickedSurf6_S1, internal, instance=Part-1-1
 48,
*Surface, type=ELEMENT, name=_PickedSurf6, internal
__PickedSurf6_S2, S2
__PickedSurf6_S3, S3
__PickedSurf6_S1, S1
*Elset, elset=__PickedSurf7_S2, internal, instance=Part-1-1
   9,  30, 103, 107, 109, 111, 114, 115, 168
*Elset, elset=__PickedSurf7_S3, internal, instance=Part-1-1
 21,
*Surface, type=ELEMENT, name=_PickedSurf7, internal
__PickedSurf7_S2, S2
__PickedSurf7_S3, S3
*End Assembly
** 
** MATERIALS
** 
*Material, name=Material-1
*Conductivity
1.,
** ----------------------------------------------------------------
** 
** STEP: Step-1
** 
*Step, name=Step-1, nlgeom=NO
*Heat Transfer, steady state, deltmx=0.
1., 1., 1e-05, 1., 
** 
** BOUNDARY CONDITIONS
** 
** Name: leftandright Type: Temperature Using Analytical Field: leftandright
*Boundary
Part-1-1.17, 11, 11, 0.208947
Part-1-1.18, 11, 11, 0.208947
Part-1-1.19, 11, 11, 0.208947
Part-1-1.20, 11, 11, 0.208947
Part-1-1.21, 11, 11, 0.152344
Part-1-1.22, 11, 11, 0.110952
Part-1-1.23, 11, 11, 0.0832418
Part-1-1.24, 11, 11, 0.067549
Part-1-1.25, 11, 11, 0.0625
Part-1-1.26, 11, 11, 0.067549
Part-1-1.27, 11, 11, 0.0832418
Part-1-1.28, 11, 11, 0.110952
Part-1-1.29, 11, 11, 0.152344
Part-1-1.39, 11, 11, 0.152344
Part-1-1.40, 11, 11, 0.110952
Part-1-1.41, 11, 11, 0.0832418
Part-1-1.42, 11, 11, 0.067549
Part-1-1.43, 11, 11, 0.0625
Part-1-1.44, 11, 11, 0.067549
Part-1-1.45, 11, 11, 0.0832418
** ... 22 like lines cut
** Name: ring Type: Temperature
*Boundary
_PickedSet4, 11, 11
** 
** LOADS
** 
** Name: body   Type: Body heat flux Using Field: bodySource
*Dflux
Part-1-1.1, BF, -2.73114
Part-1-1.2, BF, -2.96545
Part-1-1.3, BF, -2.60609
Part-1-1.4, BF, -2.86428
Part-1-1.5, BF, -2.19085
Part-1-1.6, BF, -2.73141
Part-1-1.7, BF, -2.87801
Part-1-1.8, BF, -2.60591
Part-1-1.9, BF, -2.97793
Part-1-1.10, BF, -2.62653
Part-1-1.11, BF, -2.73177
Part-1-1.12, BF, -2.87813
Part-1-1.13, BF, -2.60592
Part-1-1.14, BF, -2.9779
Part-1-1.15, BF, -2.73379
Part-1-1.16, BF, -2.68015
Part-1-1.17, BF, -2.87112
Part-1-1.18, BF, -2.60695
Part-1-1.19, BF, -2.97836
Part-1-1.20, BF, -2.62475
** ... 156 like lines cut
** Name: bot   Type: Surface heat flux Using Field: topbot
*Dflux
Part-1-1.9, S2, -0.521087
Part-1-1.21, S3, -0.628353
Part-1-1.30, S2, -0.628353
Part-1-1.103, S2, -0.552786
Part-1-1.107, S2, -0.502481
Part-1-1.109, S2, -0.502481
Part-1-1.111, S2, -0.521087
Part-1-1.114, S2, -0.552786
Part-1-1.115, S2, -0.590384
Part-1-1.168, S2, -0.590384
** Name: top   Type: Surface heat flux Using Field: topbot
*Dflux
Part-1-1.19, S2, 0.521087
Part-1-1.39, S3, 0.628353
Part-1-1.48, S1, 0.628353
Part-1-1.131, S2, 0.552786
Part-1-1.135, S2, 0.502481
Part-1-1.137, S2, 0.502481
Part-1-1.139, S2, 0.521087
Part-1-1.142, S2, 0.552786
Part-1-1.143, S2, 0.590384
Part-1-1.145, S2, 0.590384
** 
** OUTPUT REQUESTS
** 
*Restart, write, frequency=0
** 
** FIELD OUTPUT: F-Output-1
** 
*Output, field, variable=PRESELECT
*Output, history, frequency=0
*End Step
