*Heading
** Job name: Prob2Q8 Model name: Model-1
** Generated by: Abaqus/CAE Student Edition 2020
*Preprint, echo=NO, model=NO, history=NO, contact=NO
**
** PARTS
**
*Part, name=Part-1
*Node
      1,         -0.5,          0.5
      2,         -0.5,  0.400000006
      3,         -0.5,  0.300000012
      4,         -0.5,  0.200000003
      5,         -0.5,  0.100000001
      6,         -0.5,           0.
      7,         -0.5, -0.100000001
      8,         -0.5, -0.200000003
      9,         -0.5, -0.300000012
     10,         -0.5, -0.400000006
     11,         -0.5,         -0.5
     12, -0.400000006,          0.5
     13, -0.400000006,  0.400000006
     14, -0.400000006,  0.300000012
     15, -0.400000006,  0.200000003
     16, -0.400000006,  0.100000001
     17, -0.400000006,           0.
     18, -0.400000006, -0.100000001
     19, -0.400000006, -0.200000003
     20, -0.400000006, -0.300000012
** ... 421 like lines cut
*Element, type=DC2D6
  1,   1,   2,  13, 122, 123, 124
  2,  13,  12,   1, 125, 126, 124
  3,   2,   3,  14, 127, 128, 129
  4,  14,  13,   2, 130, 123, 129
  5,   3,   4,  15, 131, 132, 133
  6,  15,  14,   3, 134, 128, 133
  7,   4,   5,  16, 135, 136, 137
  8,  16,  15,   4, 138, 132, 137
  9,   5,   6,  17, 139, 140, 141
 10,  17,  16,   5, 142, 136, 141
 11,   6,   7,  18, 143, 144, 145
 12,  18,  17,   6, 146, 140, 145
 13,   7,   8,  19, 147, 148, 149
 14,  19,  18,   7, 150, 144, 149
 15,   8,   9,  20, 151, 152, 153
 16,  20,  19,   8, 154, 148, 153
 17,   9,  10,  21, 155, 156, 157
 18,  21,  20,   9, 158, 152, 157
 19,  10,  11,  22, 159, 160, 161
 20,  22,  21,  10, 162, 156, 161
** ... 180 like lines cut
*Nset, nset=Set-1, generate
   1,  441,    1
*Elset, elset=Set-1, generate
   1,  200,    1
*Nset, nset=bot1
  11,  22,  33,  44,  55,  66,  77,  88,  99, 110, 121, 160, 191, 222, 253, 284
 315, 346, 377, 408, 439
*Elset, elset=bot1, generate
  19,  199,   20
*Nset, nset=right2
 111, 112, 113, 114, 115, 116, 117, 118, 119, 120, 121, 413, 417, 420, 423, 426
 429, 432, 435, 438, 441
*Elset, elset=right2, generate
 182,  200,    2
*Nset, nset=top3
   1,  12,  23,  34,  45,  56,  67,  78,  89, 100, 111, 126, 166, 197, 228, 259
 290, 321, 352, 383, 414
*Elset, elset=top3, generate
   2,  182,   20
*Nset, nset=left4
   1,   2,   3,   4,   5,   6,   7,   8,   9,  10,  11, 122, 127, 131, 135, 139
 143, 147, 151, 155, 159
*Elset, elset=left4, generate
  1,  19,   2
** Section: Section-1
*Solid Section, elset=Set-1, material=Material-1
,
*End Part
**  
**
** ASSEMBLY
**
*Assembly, name=Assembly
**  
*Instance, name=Part-1-1, part=Part-1
*End Instance
**  
*Nset, nset=_PickedSet5, internal, instance=Part-1-1
   1,   2,   3,   4,   5,   6,   7,   8,   9,  10,  11, 122, 127, 131, 135, 139
 143, 147, 151, 155, 159
*Elset, elset=_PickedSet5, internal, instance=Part-1-1, generate
  1,  19,   2
*Nset, nset=_PickedSet6, internal, instance=Part-1-1, generate
   1,  441,    1
*Elset, elset=_PickedSet6, internal, instance=Part-1-1, generate
   1,  200,    1
*Elset, elset=__PickedSurf4_S1, internal, instance=Part-1-1, generate
 182,  200,    2
*Surface, type=ELEMENT, name=_PickedSurf4, internal
__PickedSurf4_S1, S1
*End Assembly
** 
** MATERIALS
** 
*Material, name=Material-1
*Conductivity
1.,
** ----------------------------------------------------------------
** 
** STEP: Step-1
** 
*Step, name=Step-1, nlgeom=NO
*Heat Transfer, steady state, deltmx=0.
1., 1., 1e-05, 1., 
** 
** BOUNDARY CONDITIONS
** 
** Name: leftESS Type: Temperature
*Boundary
_PickedSet5, 11, 11
** 
** LOADS
** 
** Name: body   Type: Body heat flux
*Dflux
_PickedSet6, BF, 2.
** Name: rightNeu   Type: Surface heat flux
*Dsflux
_PickedSurf4, S, 2.
** 
** OUTPUT REQUESTS
** 
*Restart, write, frequency=0
** 
** FIELD OUTPUT: F-Output-1
** 
*Output, field, variable=PRESELECT
*Output, history, frequency=0
*End Step
