*Heading
** Job name: Prob2Q8 Model name: Model-1
** Generated by: Abaqus/CAE Student Edition 2020
*Preprint, echo=NO, model=NO, history=NO, contact=NO
**
** PARTS
**
*Part, name=Part-1
*Node
      1,         -0.5,          0.5
      2,         -0.5,  0.400000006
      3,         -0.5,  0.300000012
      4,         -0.5,  0.200000003
      5,         -0.5,  0.100000001
      6,         -0.5,           0.
      7,         -0.5, -0.100000001
      8,         -0.5, -0.200000003
      9,         -0.5, -0.300000012
     10,         -0.5, -0.400000006
     11,         -0.5,         -0.5
     12, -0.400000006,          0.5
     13, -0.400000006,  0.400000006
     14, -0.400000006,  0.300000012
     15, -0.400000006,  0.200000003
     16, -0.400000006,  0.100000001
     17, -0.400000006,           0.
     18, -0.400000006, -0.100000001
     19, -0.400000006, -0.200000003
     20, -0.400000006, -0.300000012
** ... 321 like lines cut
*Element, type=DC2D8
  1,   1,   2,  13,  12, 122, 123, 124, 125
  2,   2,   3,  14,  13, 126, 127, 128, 123
  3,   3,   4,  15,  14, 129, 130, 131, 127
  4,   4,   5,  16,  15, 132, 133, 134, 130
  5,   5,   6,  17,  16, 135, 136, 137, 133
  6,   6,   7,  18,  17, 138, 139, 140, 136
  7,   7,   8,  19,  18, 141, 142, 143, 139
  8,   8,   9,  20,  19, 144, 145, 146, 142
  9,   9,  10,  21,  20, 147, 148, 149, 145
 10,  10,  11,  22,  21, 150, 151, 152, 148
 11,  12,  13,  24,  23, 124, 153, 154, 155
 12,  13,  14,  25,  24, 128, 156, 157, 153
 13,  14,  15,  26,  25, 131, 158, 159, 156
 14,  15,  16,  27,  26, 134, 160, 161, 158
 15,  16,  17,  28,  27, 137, 162, 163, 160
 16,  17,  18,  29,  28, 140, 164, 165, 162
 17,  18,  19,  30,  29, 143, 166, 167, 164
 18,  19,  20,  31,  30, 146, 168, 169, 166
 19,  20,  21,  32,  31, 149, 170, 171, 168
 20,  21,  22,  33,  32, 152, 172, 173, 170
** ... 80 like lines cut
*Nset, nset=Set-1, generate
   1,  341,    1
*Elset, elset=Set-1, generate
   1,  100,    1
*Nset, nset=bot1
  11,  22,  33,  44,  55,  66,  77,  88,  99, 110, 121, 151, 172, 193, 214, 235
 256, 277, 298, 319, 340
*Elset, elset=bot1, generate
  10,  100,   10
*Nset, nset=right2
 111, 112, 113, 114, 115, 116, 117, 118, 119, 120, 121, 322, 325, 327, 329, 331
 333, 335, 337, 339, 341
*Elset, elset=right2, generate
  91,  100,    1
*Nset, nset=top3
   1,  12,  23,  34,  45,  56,  67,  78,  89, 100, 111, 125, 155, 176, 197, 218
 239, 260, 281, 302, 323
*Elset, elset=top3, generate
  1,  91,  10
*Nset, nset=left4
   1,   2,   3,   4,   5,   6,   7,   8,   9,  10,  11, 122, 126, 129, 132, 135
 138, 141, 144, 147, 150
*Elset, elset=left4, generate
  1,  10,   1
** Section: Section-1
*Solid Section, elset=Set-1, material=Material-1
,
*End Part
**  
**
** ASSEMBLY
**
*Assembly, name=Assembly
**  
*Instance, name=Part-1-1, part=Part-1
*End Instance
**  
*Nset, nset=_PickedSet5, internal, instance=Part-1-1
   1,   2,   3,   4,   5,   6,   7,   8,   9,  10,  11, 122, 126, 129, 132, 135
 138, 141, 144, 147, 150
*Elset, elset=_PickedSet5, internal, instance=Part-1-1, generate
  1,  10,   1
*Elset, elset=__PickedSurf4_S3, internal, instance=Part-1-1, generate
  91,  100,    1
*Surface, type=ELEMENT, name=_PickedSurf4, internal
__PickedSurf4_S3, S3
*End Assembly
** 
** MATERIALS
** 
*Material, name=Material-1
*Conductivity
1.,
** ----------------------------------------------------------------
** 
** STEP: Step-1
** 
*Step, name=Step-1, nlgeom=NO
*Heat Transfer, steady state, deltmx=0.
1., 1., 1e-05, 1., 
** 
** BOUNDARY CONDITIONS
** 
** Name: leftESS Type: Temperature
*Boundary
_PickedSet5, 11, 11
** 
** LOADS
** 
** Name: rightNeu   Type: Surface heat flux
*Dsflux
_PickedSurf4, S, 2.
** 
** OUTPUT REQUESTS
** 
*Restart, write, frequency=0
** 
** FIELD OUTPUT: F-Output-1
** 
*Output, field, variable=PRESELECT
*Output, history, frequency=0
*End Step
