*Heading
** Job name: Prob3Q8 Model name: Model-1
** Generated by: Abaqus/CAE Student Edition 2020
*Preprint, echo=NO, model=NO, history=NO, contact=NO
**
** PARTS
**
*Part, name=Part-1
*Node
      1, -0.0956708565,  0.230969876
      2, -0.176776692,  0.176776692
      3, -0.230969876, 0.0956708565
      4,        -0.25,           0.
      5, -0.230969876, -0.0956708565
      6, -0.176776692, -0.176776692
      7, -0.0956708565, -0.230969876
      8,           0.,        -0.25
      9, 0.0956708565, -0.230969876
     10,  0.176776692, -0.176776692
     11,  0.230969876, -0.0956708565
     12,         0.25,           0.
     13,  0.230969876, 0.0956708565
     14,  0.176776692,  0.176776692
     15, 0.0956708565,  0.230969876
     16,           0.,         0.25
     17,         -0.5,         -0.5
     18,         -0.5,          0.5
     19,          0.5,         -0.5
     20,          0.5,          0.5
** ... 318 like lines cut
*Element, type=DC2D8
 1, 111,  71,  64,  99, 123, 124, 125, 126
 2,  99,  66,  86,  85, 127, 128, 129, 130
 3,  41,  85,  86,  42, 131, 129, 132, 133
 4,  89,  88,  65, 104, 134, 135, 136, 137
 5,  44,  88,  89,  45, 138, 134, 139, 140
 6, 104,  65, 118, 109, 136, 141, 142, 143
 7,  70,   9,  68, 102, 144, 145, 146, 147
 8,  67,  81,  74, 119, 148, 149, 150, 151
 9,  81,  82,  36,  35, 152, 153, 154, 155
10, 110,  83,  58, 120, 156, 157, 158, 159
11,  61,   5,  60, 100, 160, 161, 162, 163
12,  77,  75,  60,  59, 164, 165, 166, 167
13,  59, 121,  78,  77, 168, 169, 170, 167
14, 121,  62, 103,  78, 171, 172, 173, 169
15,  57, 114,   1,  16, 174, 175, 176, 177
16,  97, 113,  98, 105, 178, 179, 180, 181
17,  72,  95,  94, 116, 182, 183, 184, 185
18,  21,  17,  38,  84, 186, 187, 188, 189
19, 100,  60,  75,  76, 162, 165, 190, 191
20,  60,   5,   4,  59, 161, 192, 193, 166
** ... 74 like lines cut
*Nset, nset=_PickedSet2, internal, generate
   1,  338,    1
*Elset, elset=_PickedSet2, internal, generate
  1,  94,   1
*Nset, nset=ring
   1,   2,   3,   4,   5,   6,   7,   8,   9,  10,  11,  12,  13,  14,  15,  16
 176, 192, 212, 261, 264, 266, 268, 270, 272, 280, 282, 284, 286, 291, 297, 298
*Elset, elset=ring
 15, 20, 27, 45, 46, 47, 48, 49, 51, 55, 56, 57, 58, 61, 63, 64
*Nset, nset=bot1
  17,  19,  30,  31,  32,  33,  34,  35,  36,  37,  38, 154, 187, 203, 218, 220
 302, 304, 317, 321, 322
*Elset, elset=bot1
  9, 18, 24, 29, 30, 66, 67, 74, 75, 76
*Nset, nset=right2
  19,  20,  39,  40,  41,  42,  43,  44,  45,  46,  47, 133, 140, 204, 221, 240
 242, 324, 327, 329, 330
*Elset, elset=right2
  3,  5, 24, 31, 37, 38, 78, 79, 80, 81
*Nset, nset=top3
  18,  20,  48,  49,  50,  51,  52,  53,  54,  55,  56, 201, 222, 225, 246, 276
 294, 299, 332, 335, 336
*Elset, elset=top3
 23, 31, 32, 39, 52, 62, 65, 83, 85, 86
*Nset, nset=left4
  17,  18,  21,  22,  23,  24,  25,  26,  27,  28,  29, 186, 195, 197, 243, 247
 306, 308, 310, 314, 316
*Elset, elset=left4
 18, 21, 22, 39, 40, 68, 69, 70, 71, 73
** Section: Section-1
*Solid Section, elset=_PickedSet2, material=Material-1
,
*End Part
**  
**
** ASSEMBLY
**
*Assembly, name=Assembly
**  
*Instance, name=Part-1-1, part=Part-1
*End Instance
**  
*Nset, nset=_PickedSet4, internal, instance=Part-1-1
   1,   2,   3,   4,   5,   6,   7,   8,   9,  10,  11,  12,  13,  14,  15,  16
 176, 192, 212, 261, 264, 266, 268, 270, 272, 280, 282, 284, 286, 291, 297, 298
*Elset, elset=_PickedSet4, internal, instance=Part-1-1
 15, 20, 27, 45, 46, 47, 48, 49, 51, 55, 56, 57, 58, 61, 63, 64
*Nset, nset=_PickedSet5, internal, instance=Part-1-1
  17,  18,  19,  20,  21,  22,  23,  24,  25,  26,  27,  28,  29,  39,  40,  41
  42,  43,  44,  45,  46,  47, 133, 140, 186, 195, 197, 204, 221, 240, 242, 243
 247, 306, 308, 310, 314, 316, 324, 327, 329, 330
*Elset, elset=_PickedSet5, internal, instance=Part-1-1
  3,  5, 18, 21, 22, 24, 31, 37, 38, 39, 40, 68, 69, 70, 71, 73
 78, 79, 80, 81
*Nset, nset=_PickedSet8, internal, instance=Part-1-1, generate
   1,  338,    1
*Elset, elset=_PickedSet8, internal, instance=Part-1-1, generate
  1,  94,   1
*Elset, elset=__PickedSurf6_S3, internal, instance=Part-1-1
 23,
*Elset, elset=__PickedSurf6_S2, internal, instance=Part-1-1
 31, 32, 65, 83, 85, 86
*Elset, elset=__PickedSurf6_S4, internal, instance=Part-1-1
 39, 52, 62
*Surface, type=ELEMENT, name=_PickedSurf6, internal
__PickedSurf6_S3, S3
__PickedSurf6_S2, S2
__PickedSurf6_S4, S4
*Elset, elset=__PickedSurf7_S3, internal, instance=Part-1-1
  9, 29, 75
*Elset, elset=__PickedSurf7_S2, internal, instance=Part-1-1
 18, 66, 67, 74, 76
*Elset, elset=__PickedSurf7_S1, internal, instance=Part-1-1
 24,
*Elset, elset=__PickedSurf7_S4, internal, instance=Part-1-1
 30,
*Surface, type=ELEMENT, name=_PickedSurf7, internal
__PickedSurf7_S3, S3
__PickedSurf7_S2, S2
__PickedSurf7_S4, S4
__PickedSurf7_S1, S1
*End Assembly
** 
** MATERIALS
** 
*Material, name=Material-1
*Conductivity
1.,
** ----------------------------------------------------------------
** 
** STEP: Step-1
** 
*Step, name=Step-1, nlgeom=NO
*Heat Transfer, steady state, deltmx=0.
1., 1., 1e-05, 1., 
** 
** BOUNDARY CONDITIONS
** 
** Name: leftandright Type: Temperature Using Analytical Field: leftandright
*Boundary
Part-1-1.17, 11, 11, 0.208947
Part-1-1.18, 11, 11, 0.208947
Part-1-1.19, 11, 11, 0.208947
Part-1-1.20, 11, 11, 0.208947
Part-1-1.21, 11, 11, 0.152344
Part-1-1.22, 11, 11, 0.110952
Part-1-1.23, 11, 11, 0.0832418
Part-1-1.24, 11, 11, 0.067549
Part-1-1.25, 11, 11, 0.0625
Part-1-1.26, 11, 11, 0.067549
Part-1-1.27, 11, 11, 0.0832418
Part-1-1.28, 11, 11, 0.110952
Part-1-1.29, 11, 11, 0.152344
Part-1-1.39, 11, 11, 0.152344
Part-1-1.40, 11, 11, 0.110952
Part-1-1.41, 11, 11, 0.0832418
Part-1-1.42, 11, 11, 0.067549
Part-1-1.43, 11, 11, 0.0625
Part-1-1.44, 11, 11, 0.067549
Part-1-1.45, 11, 11, 0.0832418
** ... 22 like lines cut
** Name: ring Type: Temperature
*Boundary
_PickedSet4, 11, 11
** 
** LOADS
** 
** Name: body   Type: Body heat flux Using Field: bodySource
*Dflux
Part-1-1.1, BF, -2.57619
Part-1-1.2, BF, -2.73438
Part-1-1.3, BF, -2.95584
Part-1-1.4, BF, -2.74133
Part-1-1.5, BF, -2.94669
Part-1-1.6, BF, -2.64178
Part-1-1.7, BF, -2.44106
Part-1-1.8, BF, -2.69213
Part-1-1.9, BF, -2.96181
Part-1-1.10, BF, -2.72651
Part-1-1.11, BF, -2.44104
Part-1-1.12, BF, -2.65658
Part-1-1.13, BF, -2.64167
Part-1-1.14, BF, -2.70498
Part-1-1.15, BF, -2.27354
Part-1-1.16, BF, -2.98521
Part-1-1.17, BF, -2.71461
Part-1-1.18, BF, -3.21211
Part-1-1.19, BF, -2.74313
Part-1-1.20, BF, -2.26293
** ... 74 like lines cut
** Name: bot   Type: Surface heat flux Using Field: topbot
*Dflux
Part-1-1.9, S3, 0.521087
Part-1-1.18, S2, 0.628353
Part-1-1.24, S1, 0.628353
Part-1-1.29, S3, 0.552786
Part-1-1.30, S4, 0.590384
Part-1-1.66, S2, 0.502481
Part-1-1.67, S2, 0.521087
Part-1-1.74, S2, 0.552786
Part-1-1.75, S3, 0.590384
Part-1-1.76, S2, 0.502481
** Name: top   Type: Surface heat flux Using Field: topbot
*Dflux
Part-1-1.23, S3, 0.552786
Part-1-1.31, S2, 0.628353
Part-1-1.32, S2, 0.590384
Part-1-1.39, S4, 0.628353
Part-1-1.52, S4, 0.521087
Part-1-1.62, S4, 0.521087
Part-1-1.65, S2, 0.552786
Part-1-1.83, S2, 0.590384
Part-1-1.85, S2, 0.502481
Part-1-1.86, S2, 0.502481
** 
** OUTPUT REQUESTS
** 
*Restart, write, frequency=0
** 
** FIELD OUTPUT: F-Output-1
** 
*Output, field, variable=PRESELECT
*Output, history, frequency=0
*End Step
