*Heading
** Job name: Prob3Q8 Model name: Model-1
** Generated by: Abaqus/CAE Student Edition 2020
*Preprint, echo=NO, model=NO, history=NO, contact=NO
**
** PARTS
**
*Part, name=Part-1
*Node
      1, -0.0704331398,  0.239873245
      2, -0.135160208,   0.21031338
      3, -0.188937396,  0.163715184
      4, -0.227407992,  0.103853755
      5, -0.247455359, 0.0355787091
      6, -0.247455359, -0.0355787091
      7, -0.227407992, -0.103853755
      8, -0.188937396, -0.163715184
      9, -0.135160208,  -0.21031338
     10, -0.0704331398, -0.239873245
     11, 0.0704331398, -0.239873245
     12,  0.135160208,  -0.21031338
     13,  0.188937396, -0.163715184
     14,  0.227407992, -0.103853755
     15,  0.247455359, -0.0355787091
     16,  0.247455359, 0.0355787091
     17,  0.227407992,  0.103853755
     18,  0.188937396,  0.163715184
     19,  0.135160208,   0.21031338
     20, 0.0704331398,  0.239873245
** ... 543 like lines cut
*Element, type=DC2D8
  1, 111, 112,  71,  70, 201, 202, 203, 204
  2,  92,  18,  86, 170, 205, 206, 207, 208
  3,  72, 113, 114,  73, 209, 210, 211, 212
  4,  53, 125, 126,  54, 213, 214, 215, 216
  5,  78, 190,  16,  15, 217, 218, 219, 220
  6,  55, 127, 128,  56, 221, 222, 223, 224
  7,  76, 183,  14,  13, 225, 226, 227, 228
  8,  58, 106, 107,  59, 229, 230, 231, 232
  9,  60, 108, 109,  61, 233, 234, 235, 236
 10,  94,  12,  77, 174, 237, 238, 239, 240
 11,  41, 120, 121,  42, 241, 242, 243, 244
 12,  79,  84,  26,  10, 245, 246, 247, 248
 13,  44, 123, 124,  45, 249, 250, 251, 252
 14,  85,   8,  80, 164, 253, 254, 255, 256
 15,  48, 103, 104,  49, 257, 258, 259, 260
 16,   7,  81,  80,   8, 261, 262, 254, 263
 17,  82, 192,   6,   5, 264, 265, 266, 267
 18,  88,  82,   5,   4, 268, 267, 269, 270
 19,  88,   4,  89, 184, 270, 271, 272, 273
 20, 194, 193,  90, 185, 274, 275, 276, 277
** ... 143 like lines cut
*Nset, nset=_PickedSet2, internal, generate
   1,  563,    1
*Elset, elset=_PickedSet2, internal, generate
   1,  163,    1
*Nset, nset=ring
   1,   2,   3,   4,   5,   6,   7,   8,   9,  10,  11,  12,  13,  14,  15,  16
  17,  18,  19,  20,  21,  26, 219, 227, 247, 263, 266, 269, 287, 291, 295, 380
 425, 427, 429, 433, 434, 436, 438, 453, 457, 460, 463, 474
*Elset, elset=ring
  5,  7, 12, 16, 17, 18, 23, 24, 25, 51, 67, 68, 69, 70, 71, 72
 73, 80, 83, 84, 86, 90
*Nset, nset=bot1
  22,  24,  39,  40,  41,  42,  43,  44,  45,  46,  47,  48,  49,  50, 244, 252
 260, 297, 300, 335, 350, 448, 452, 470, 480, 492, 505
*Elset, elset=bot1
  11,  13,  15,  26,  27,  38,  42,  77,  79,  88,  92,  99, 106
*Nset, nset=right2
  24,  25,  51,  52,  53,  54,  55,  56,  57,  58,  59,  60,  61,  62, 216, 224
 232, 236, 336, 339, 362, 373, 391, 456, 498, 500, 514
*Elset, elset=right2
   4,   6,   8,   9,  38,  39,  46,  49,  55,  82, 102, 103, 110
*Nset, nset=top3
  23,  25,  63,  64,  65,  66,  67,  68,  69,  70,  71,  72,  73,  74, 203, 212
 363, 366, 397, 408, 424, 467, 477, 483, 485, 506, 524
*Elset, elset=top3
   1,   3,  46,  47,  57,  61,  66,  87,  91,  93,  94, 107, 117
*Nset, nset=left4
  22,  23,  27,  28,  29,  30,  31,  32,  33,  34,  35,  36,  37,  38, 296, 308
 311, 314, 324, 333, 394, 398, 442, 462, 486, 490, 497
*Elset, elset=left4
  26,  29,  30,  31,  34,  37,  57,  58,  74,  85,  95,  98, 101
** Section: Section-1
*Solid Section, elset=_PickedSet2, material=Material-1
,
*End Part
**  
**
** ASSEMBLY
**
*Assembly, name=Assembly
**  
*Instance, name=Part-1-1, part=Part-1
*End Instance
**  
*Nset, nset=_PickedSet4, internal, instance=Part-1-1
   1,   2,   3,   4,   5,   6,   7,   8,   9,  10,  11,  12,  13,  14,  15,  16
  17,  18,  19,  20,  21,  26, 219, 227, 247, 263, 266, 269, 287, 291, 295, 380
 425, 427, 429, 433, 434, 436, 438, 453, 457, 460, 463, 474
*Elset, elset=_PickedSet4, internal, instance=Part-1-1
  5,  7, 12, 16, 17, 18, 23, 24, 25, 51, 67, 68, 69, 70, 71, 72
 73, 80, 83, 84, 86, 90
*Nset, nset=_PickedSet5, internal, instance=Part-1-1
  22,  23,  24,  25,  27,  28,  29,  30,  31,  32,  33,  34,  35,  36,  37,  38
  51,  52,  53,  54,  55,  56,  57,  58,  59,  60,  61,  62, 216, 224, 232, 236
 296, 308, 311, 314, 324, 333, 336, 339, 362, 373, 391, 394, 398, 442, 456, 462
 486, 490, 497, 498, 500, 514
*Elset, elset=_PickedSet5, internal, instance=Part-1-1
   4,   6,   8,   9,  26,  29,  30,  31,  34,  37,  38,  39,  46,  49,  55,  57
  58,  74,  82,  85,  95,  98, 101, 102, 103, 110
*Nset, nset=_PickedSet8, internal, instance=Part-1-1, generate
   1,  563,    1
*Elset, elset=_PickedSet8, internal, instance=Part-1-1, generate
   1,  163,    1
*Elset, elset=__PickedSurf6_S3, internal, instance=Part-1-1
  1, 93
*Elset, elset=__PickedSurf6_S4, internal, instance=Part-1-1
  3, 57, 61, 66, 87, 91, 94
*Elset, elset=__PickedSurf6_S2, internal, instance=Part-1-1
  46,  47, 107, 117
*Surface, type=ELEMENT, name=_PickedSurf6, internal
__PickedSurf6_S3, S3
__PickedSurf6_S4, S4
__PickedSurf6_S2, S2
*Elset, elset=__PickedSurf7_S4, internal, instance=Part-1-1
  11,  13,  15,  42,  77,  79,  88,  92, 106
*Elset, elset=__PickedSurf7_S2, internal, instance=Part-1-1
 26, 27, 99
*Elset, elset=__PickedSurf7_S1, internal, instance=Part-1-1
 38,
*Surface, type=ELEMENT, name=_PickedSurf7, internal
__PickedSurf7_S4, S4
__PickedSurf7_S2, S2
__PickedSurf7_S1, S1
*End Assembly
** 
** MATERIALS
** 
*Material, name=Material-1
*Conductivity
1.,
** ----------------------------------------------------------------
** 
** STEP: Step-1
** 
*Step, name=Step-1, nlgeom=NO
*Heat Transfer, steady state, deltmx=0.
1., 1., 1e-05, 1., 
** 
** BOUNDARY CONDITIONS
** 
** Name: leftandright Type: Temperature Using Analytical Field: leftandright
*Boundary
Part-1-1.22, 11, 11, 0.208947
Part-1-1.23, 11, 11, 0.208947
Part-1-1.24, 11, 11, 0.208947
Part-1-1.25, 11, 11, 0.208947
Part-1-1.27, 11, 11, 0.164006
Part-1-1.28, 11, 11, 0.128257
Part-1-1.29, 11, 11, 0.101046
Part-1-1.30, 11, 11, 0.0816286
Part-1-1.31, 11, 11, 0.0692431
Part-1-1.32, 11, 11, 0.0632407
Part-1-1.33, 11, 11, 0.0632407
Part-1-1.34, 11, 11, 0.0692431
Part-1-1.35, 11, 11, 0.0816286
Part-1-1.36, 11, 11, 0.101046
Part-1-1.37, 11, 11, 0.128257
Part-1-1.38, 11, 11, 0.164006
Part-1-1.51, 11, 11, 0.164006
Part-1-1.52, 11, 11, 0.128257
Part-1-1.53, 11, 11, 0.101046
Part-1-1.54, 11, 11, 0.0816286
** ... 34 like lines cut
** Name: ring Type: Temperature
*Boundary
_PickedSet4, 11, 11
** 
** LOADS
** 
** Name: body   Type: Body heat flux Using Field: bodySource
*Dflux
Part-1-1.1, BF, -2.96673
Part-1-1.2, BF, -2.41619
Part-1-1.3, BF, -3.10718
Part-1-1.4, BF, -3.04393
Part-1-1.5, BF, -2.16156
Part-1-1.6, BF, -2.946
Part-1-1.7, BF, -2.20032
Part-1-1.8, BF, -2.96153
Part-1-1.9, BF, -3.09925
Part-1-1.10, BF, -2.40797
Part-1-1.11, BF, -3.0448
Part-1-1.12, BF, -2.13819
Part-1-1.13, BF, -2.93097
Part-1-1.14, BF, -2.41887
Part-1-1.15, BF, -3.09475
Part-1-1.16, BF, -2.24015
Part-1-1.17, BF, -2.1862
Part-1-1.18, BF, -2.21328
Part-1-1.19, BF, -2.36313
Part-1-1.20, BF, -2.54297
** ... 143 like lines cut
** Name: bot   Type: Surface heat flux Using Field: topbot
*Dflux
Part-1-1.11, S4, 0.54602
Part-1-1.13, S4, 0.5
Part-1-1.15, S4, 0.574171
Part-1-1.26, S2, 0.632598
Part-1-1.27, S2, 0.603688
Part-1-1.38, S1, 0.632598
Part-1-1.42, S4, 0.52211
Part-1-1.77, S4, 0.505814
Part-1-1.79, S4, 0.54602
Part-1-1.88, S4, 0.52211
Part-1-1.92, S4, 0.574171
Part-1-1.99, S2, 0.505814
Part-1-1.106, S4, 0.603688
** Name: top   Type: Surface heat flux Using Field: topbot
*Dflux
Part-1-1.1, S3, 0.52211
Part-1-1.3, S4, 0.574171
Part-1-1.46, S2, 0.632598
Part-1-1.47, S2, 0.603688
Part-1-1.57, S4, 0.632598
Part-1-1.61, S4, 0.54602
Part-1-1.66, S4, 0.54602
Part-1-1.87, S4, 0.574171
Part-1-1.91, S4, 0.52211
Part-1-1.93, S3, 0.5
Part-1-1.94, S4, 0.505814
Part-1-1.107, S2, 0.505814
Part-1-1.117, S2, 0.603688
** 
** OUTPUT REQUESTS
** 
*Restart, write, frequency=0
** 
** FIELD OUTPUT: F-Output-1
** 
*Output, field, variable=PRESELECT
*Output, history, frequency=0
*End Step
